<configuration>
    <input>
        <net-file value="mycity.net.xml"/>
        <route-files value="mycity.rou.xml"/>
        <additional-files value="mycity.add.xml"/>
    </input>
</configuration>
