<routes>
    <vType id="car" accel="2.0" decel="4.5" sigma="0.5" length="5" maxSpeed="13.89" color="1,0,0"/>
    <vType id="bus" accel="1.2" decel="4.0" sigma="0.5" length="12" maxSpeed="12.0" color="0,0,1"/>
    <vType id="ambulance" accel="2.5" decel="4.5" sigma="0.5" length="6" maxSpeed="20.0" color="0,1,0"/>

    <!-- Normal traffic -->
    <flow id="north_south" type="car" begin="0" end="3600" probability="0.2" from="N2TL" to="TL2S"/>
    <flow id="south_north" type="bus" begin="0" end="3600" probability="0.05" from="S2TL" to="TL2N"/>
    <flow id="east_west" type="car" begin="0" end="3600" probability="0.2" from="E2TL" to="TL2W"/>
    <flow id="west_east" type="car" begin="0" end="3600" probability="0.2" from="W2TL" to="TL2E"/>

    <!-- Ambulance occasionally -->
    <flow id="ambulance_flow" type="ambulance" begin="100" end="3600" probability="0.01" from="S2TL" to="TL2N"/>
</routes>
